267 

  O           37.204267       30.720169       23.800309
  O           38.584324       26.791054       24.549878
  O           33.988395       25.536103       34.242992
  O           22.782713       25.181350       21.466688
  O           24.460800       39.461122       21.526826
  O           39.116711       35.472620       27.903753
  O           27.253360       30.971313       35.435353
  O           32.474232       36.499274       35.202403
  O           34.927923       38.117580       30.128742
  O           32.372367       21.744612       28.862171
  O           25.175915       32.656420       26.728701
  O           38.088331       37.208678       36.507660
  O           23.570414       38.945667       35.965488
  O           22.067586       37.641375       33.956299
  O           30.473777       37.539715       39.673312
  O           32.714336       22.917588       20.194536
  O           33.096455       20.639947       36.691124
  O           22.110887       22.600986       27.893089
  O           26.808979       30.882316       21.279666
  O           29.565733       24.639295       36.052164
  O           33.748613       32.183596       39.059733
  O           25.305394       25.812782       32.403942
  O           27.243621       37.053588       35.928589
  O           24.868302       28.208601       31.412392
  O           37.322698       29.177058       37.046129
  O           31.816272       22.933092       35.431871
  O           29.481911       30.609524       32.697083
  O           21.930217       32.530368       35.499276
  O           22.676496       34.729035       27.319355
  O           37.876035       30.012082       25.849322
  O           27.557918       39.444834       21.769906
  O           23.209499       22.737540       33.366650
  O           39.078326       21.706785       26.562232
  O           30.047771       32.415264       23.942416
  O           27.114130       23.847452       25.975041
  O           28.759280       34.057557       21.586065
  O           24.441257       34.759542       20.545072
  O           20.265546       26.646189       36.738904
  O           31.357802       33.843971       30.546024
  O           39.460468       22.913667       32.345635
  O           27.837262       21.308505       38.189815
  O           27.356477       39.880042       26.518897
  O           36.295585       23.751087       24.136301
  O           37.487256       25.798891       21.845919
  O           32.311499       23.339098       26.558647
  O           35.361149       36.197530       28.675618
  O           20.958550       23.829242       35.960437
  O           22.270486       39.167371       28.741540
  O           34.288914       28.456916       21.350091
  O           31.378747       34.703543       24.966465
  O           35.044424       33.227300       30.640422
  O           29.379219       33.267879       31.327630
  O           23.365044       24.781525       31.407857
  O           23.827152       19.999999       36.519553
  O           27.299818       36.071087       21.401784
  O           33.966338       31.429480       20.621602
  O           36.910920       38.361184       20.665211
  O           39.073564       26.160644       35.984830
  O           34.938297       30.487644       31.621128
  O           30.726595       37.163619       20.888019
  O           25.120703       29.547198       27.773391
  O           37.101015       20.580373       39.697537
  O           28.976226       25.695608       26.684779
  O           33.882417       34.336424       36.935597
  O           38.732152       21.259656       37.068916
  O           35.340122       37.800217       33.779063
  O           28.979836       34.302421       26.378407
  O           35.741843       26.714365       35.101080
  O           24.569276       36.761305       28.100707
  O           24.526386       23.448004       39.458359
  O           30.201917       28.147384       21.531160
  O           39.709436       21.917469       29.333527
  O           37.486123       21.898839       23.611613
  O           30.788637       31.163496       36.108009
  O           22.792244       26.411356       24.370550
  O           33.360635       40.000137       31.427570
  O           32.629606       28.977183       39.126490
  O           27.598489       22.027297       20.707427
  O           37.058204       31.854878       28.952786
  O           34.086700       28.200053       36.602650
  O           27.059063       32.558309       28.572800
  O           35.410228       20.301859       33.640535
  O           30.512416       20.714308       31.052428
  O           28.114720       23.549633       38.045879
  O           37.395608       23.956483       30.038730
  O           25.929722       23.063873       37.660999
  O           22.141177       33.583454       38.663769
  O           20.456316       37.749014       27.870489
  O           35.215948       23.091917       29.375211
  O           28.547067       39.186744       34.230774
  O           39.714711       25.871920       29.098173
  O           38.444358       28.578640       34.721393
  O           20.316285       36.280045       36.821702
  O           33.344105       24.140868       24.140870
  O           30.422532       35.278070       38.414118
  O           36.098557       24.539518       32.762330
  O           20.879841       39.998585       31.420185
  O           31.495100       39.316360       34.121931
  O           22.278405       28.159466       37.688041
  O           37.742326       27.773027       20.806836
  O           35.923078       30.853230       39.430434
  O           34.665678       21.202113       23.200269
  O           34.289806       27.971801       30.101481
  O           31.163945       25.510889       33.749410
  O           35.769641       20.453227       25.135331
  O           35.368025       30.741181       34.160243
  O           29.251606       23.131190       32.606063
  O           27.854683       24.376269       33.822248
  O           22.204882       24.856793       38.597446
  O           26.914319       26.281601       30.455331
  O           23.758510       22.147152       37.174799
  O           36.460993       34.189972       24.291809
  O           25.485910       32.727991       35.597934
  O           29.103810       25.514208       31.383413
  O           23.922782       27.235325       39.494436
  O           23.333046       22.476312       30.261037
  O           29.731111       27.555634       29.385195
  O           24.353975       26.295891       28.846749
  O           24.850885       23.823186       20.494555
  O           19.996246       24.735008       29.244551
  O           30.615433       30.508251       21.523889
  O           33.971373       20.717650       30.344639
  O           23.691453       35.505531       30.960970
  O           36.610738       24.047483       20.000273
  O           38.222997       32.754684       36.753952
  O           24.854531       27.504715       22.904931
  O           39.776333       37.938711       24.879234
  O           37.914908       37.772960       31.326914
  O           36.987455       32.822840       32.276394
  O           39.062003       37.019333       33.094599
  O           31.848165       31.373712       29.157796
  O           20.166943       23.730115       25.232447
  O           29.562281       30.681162       25.972586
  O           31.949547       20.058384       34.458693
  O           35.977409       39.858836       37.406437
  O           35.252358       24.683355       37.578426
  O           28.979356       35.218626       35.827551
  O           25.214517       39.443020       29.265314
  O           29.463179       21.793148       35.126336
  O           36.014493       26.776248       38.841332
  O           32.682260       26.200009       19.959207
  O           32.977535       33.408807       34.565474
  O           31.122380       23.035697       38.231969
  O           25.278715       36.122184       35.078336
  O           26.684207       35.121549       31.930170
  O           35.730749       22.140571       37.394978
  O           25.633294       22.331044       32.230798
  O           27.258524       19.999353       30.914743
  O           32.730776       38.653259       22.691453
  O           22.669701       27.165520       30.133646
  O           20.566669       33.563233       28.848772
  O           30.040383       33.236904       37.158350
  O           26.245111       25.269288       39.244829
  O           22.982154       36.243137       36.758358
  O           26.444266       38.413412       24.158735
  O           27.441408       24.314038       28.150952
  O           24.768855       30.323103       37.896334
  O           38.298185       37.673408       26.727894
  O           39.281534       30.002453       28.627635
  O           33.523808       25.525004       21.867259
  O           39.108660       29.145161       31.041247
  O           21.947476       34.538199       31.886878
  O           32.112666       30.654216       25.280420
  O           24.711734       28.791359       35.197890
  O           37.717569       39.236289       33.898595
  O           27.503035       29.779727       28.331454
  O           20.066036       32.102897       26.137788
  O           30.536644       27.798373       39.111078
  O           32.100453       26.375321       28.313710
  O           24.642270       36.221060       24.268219
  O           36.638480       28.581335       32.496123
  O           36.508587       34.699356       38.649278
  O           22.761079       30.358564       38.704041
  O           22.054199       27.079736       34.888459
  O           23.004901       37.542729       22.058844
  O           27.550693       27.055539       32.804495
  O           33.701979       35.589846       24.480714
  O           31.381763       36.903241       26.938467
  O           28.340460       27.971278       34.871735
  O           38.173032       39.451725       23.282486
  O           34.039964       39.120085       25.839651
  O           39.239912       37.331634       39.601116
  O           27.322147       20.355601       28.281918
  O           26.901372       34.419681       23.275265
  O           29.989772       33.190527       34.003182
  O           30.998750       40.000164       28.294998
  O           26.819921       32.198230       39.019074
  O           27.333286       27.710575       38.101213
  O           27.922510       37.101749       27.545733
  O           27.551981       37.909830       30.255312
  O           38.029266       35.575112       30.418137
  O           22.990004       24.861914       27.096348
  O           39.011643       39.998162       38.904569
  O           34.798889       36.792449       21.643880
  O           31.618503       39.154992       25.268112
  O           35.184003       37.262239       36.924962
  O           34.189729       26.632654       25.168052
  O           27.082977       31.088713       25.964934
  O           32.291854       25.209286       38.393395
  O           39.325158       26.329100       39.233502
  O           22.854180       28.597052       32.446666
  O           34.162244       30.981441       36.166021
  O           37.018847       20.532441       29.317828
  O           23.735985       30.116706       23.750044
  O           21.823848       32.940945       21.729700
  O           37.702445       23.300239       39.053974
  O           27.171996       33.096222       34.078557
  O           39.626496       29.085350       36.639461
  O           20.008646       26.710907       25.271729
  O           31.983599       28.948144       22.803229
  O           24.609115       35.213931       37.815780
  O           21.253164       34.244077       23.952060
  O           29.611490       20.948251       20.860509
  O           26.307935       37.176801       32.625742
  O           23.540244       23.772193       24.261261
  O           32.153199       23.592037       30.264751
  O           32.464496       21.398784       39.294772
  O           25.515460       32.003813       32.586832
  O           27.114447       29.314391       31.669074
  O           28.986685       23.078691       27.151367
  O           39.492863       23.972305       27.406623
  O           29.288357       25.543769       39.131269
  O           20.315770       37.546565       32.043367
  O           30.035291       28.183433       24.413222
  O           32.671042       30.006784       33.889559
  O           21.931359       31.099796       32.145448
  O           39.902874       24.017750       38.355365
  O           24.568623       33.053197       23.907208
  O           23.864233       38.545326       31.805101
  O           37.385167       36.477742       23.366116
  O           35.244495       22.038328       32.333402
  O           37.131084       27.825133       27.823599
  O           21.543871       40.028021       35.440486
  O           20.932897       29.653538       33.466898
  O           38.963455       31.584961       33.434630
  O           33.924128       31.975876       23.613333
  O           32.480476       29.305775       26.983609
  O           34.890361       27.139910       28.029066
  O           27.841086       27.377370       22.081130
  O           36.843888       24.761131       35.950267
  O           38.307092       26.832904       31.354452
  O           39.002186       34.707488       35.403394
  O           20.795312       20.485875       26.460542
  O           24.020999       24.694191       35.593489
  O           30.259375       28.607933       32.192656
  O           29.360094       38.838439       37.327326
  O           26.197430       35.748438       26.794976
  O           39.585414       23.877625       24.578575
  O           20.070827       30.433281       36.876496
  O           27.614961       23.071160       30.106563
  O           23.314526       32.977220       30.602201
  O           23.618847       39.069850       25.825851
  O           35.144131       34.972968       33.924055
  O           34.020501       39.804141       36.431857
  O           39.209315       32.431314       30.211074
  O           32.917015       25.892324       30.328438
  O           39.084690       32.960997       23.789207
  O           28.056397       33.973701       39.461560
  O           27.909537       20.443857       33.493781
  O           30.286358       28.823424       37.182051
  O           21.551639       37.767483       24.372486
  O           38.771877       31.444790       20.452056
  O           29.773652       25.084560       21.340670
  O           25.208317       33.668147       28.805726
  O           33.863183       21.657809       25.975079
  O           34.086553       28.557632       32.933914
  O           37.536788       20.212939       31.641654
